Version 4
SHEET 1 1940 1160
WIRE -112 -64 -640 -64
WIRE -64 -64 -112 -64
WIRE 352 -64 -64 -64
WIRE -640 -32 -640 -64
WIRE -112 16 -112 -64
WIRE -64 16 -64 -64
WIRE -640 80 -640 48
WIRE 448 160 176 160
WIRE 656 160 560 160
WIRE 752 160 720 160
WIRE 816 160 752 160
WIRE 1472 160 816 160
WIRE 448 208 448 160
WIRE 560 208 560 160
WIRE 816 208 816 160
WIRE -208 240 -640 240
WIRE -112 240 -112 96
WIRE -112 240 -144 240
WIRE -48 240 -112 240
WIRE 128 240 64 240
WIRE 352 320 352 -64
WIRE 448 320 448 288
WIRE 448 320 352 320
WIRE 560 320 560 288
WIRE 816 320 816 272
WIRE 816 320 560 320
WIRE 448 336 448 320
WIRE 560 336 560 320
WIRE 816 352 816 320
WIRE 1472 352 1472 160
WIRE 1472 352 1312 352
WIRE -640 368 -640 240
WIRE 1472 384 1472 352
WIRE 352 416 176 416
WIRE 352 464 352 416
WIRE 448 464 448 416
WIRE 448 464 352 464
WIRE 560 464 560 416
WIRE 656 464 560 464
WIRE 752 464 752 160
WIRE 752 464 720 464
WIRE 1664 464 1632 464
WIRE 1744 464 1664 464
WIRE 1104 480 1072 480
WIRE 1232 480 1184 480
WIRE 1744 480 1744 464
WIRE -208 496 -640 496
WIRE -64 496 -64 96
WIRE -64 496 -144 496
WIRE -48 496 -64 496
WIRE 128 496 64 496
WIRE 1632 496 1632 464
WIRE 1632 496 1600 496
WIRE -640 512 -640 496
WIRE 1312 512 1312 352
WIRE 1344 512 1312 512
WIRE 1312 544 1312 512
WIRE 1344 544 1312 544
WIRE 1632 560 1600 560
WIRE 1632 592 1632 560
WIRE 1664 592 1632 592
WIRE 1744 592 1744 560
WIRE 1744 592 1664 592
WIRE 656 608 560 608
WIRE 784 608 720 608
WIRE 880 608 784 608
WIRE 944 608 880 608
WIRE 1072 608 1072 480
WIRE 1072 608 1008 608
WIRE 1088 608 1072 608
WIRE 1232 608 1232 480
WIRE 1232 608 1200 608
WIRE 1344 608 1232 608
WIRE 0 624 -96 624
WIRE 336 624 112 624
WIRE 448 624 400 624
WIRE -336 640 -640 640
WIRE -160 640 -336 640
WIRE -640 656 -640 640
WIRE -160 656 -192 656
WIRE 448 656 448 624
WIRE 560 656 560 608
WIRE 880 704 880 608
WIRE 784 720 784 608
WIRE 448 784 448 736
WIRE 560 784 560 736
WIRE -192 800 -192 656
WIRE -192 800 -640 800
WIRE -640 816 -640 800
WIRE 0 896 -96 896
WIRE 448 896 448 864
WIRE 448 896 112 896
WIRE -336 912 -336 640
WIRE -320 912 -336 912
WIRE -160 912 -256 912
WIRE 560 912 560 864
WIRE 784 912 784 784
WIRE 784 912 560 912
WIRE 880 912 880 784
WIRE 880 912 784 912
WIRE 1472 912 1472 704
WIRE 1472 912 880 912
WIRE -192 928 -192 800
WIRE -160 928 -192 928
WIRE 1472 944 1472 912
FLAG -640 80 0
FLAG 176 512 0
FLAG 176 256 0
FLAG -640 592 0
FLAG -640 448 0
FLAG -640 736 0
FLAG -640 896 0
FLAG 1472 944 0
FLAG 1664 464 D+
FLAG 1664 592 D-
FLAG 816 352 0
SYMBOL ind2 432 192 R0
SYMATTR InstName L1
SYMATTR Value 175µ
SYMATTR Type ind
SYMATTR SpiceLine Rser=.1
SYMBOL ind2 544 192 R0
SYMATTR InstName L2
SYMATTR Value 175µ
SYMATTR Type ind
SYMATTR SpiceLine Rser=.1
SYMBOL ind2 432 320 R0
SYMATTR InstName L3
SYMATTR Value 175µ
SYMATTR Type ind
SYMATTR SpiceLine Rser=.1
SYMBOL ind2 544 320 R0
SYMATTR InstName L4
SYMATTR Value 175µ
SYMATTR Type ind
SYMATTR SpiceLine Rser=.1
SYMBOL schottky 656 176 R270
WINDOW 0 32 32 VTop 2
WINDOW 3 0 32 VBottom 2
SYMATTR InstName D1
SYMATTR Value BAT54
SYMBOL schottky 656 480 R270
WINDOW 0 32 32 VTop 2
WINDOW 3 0 32 VBottom 2
SYMATTR InstName D2
SYMATTR Value BAT54
SYMBOL cap 800 208 R0
SYMATTR InstName C1
SYMATTR Value 12µ
SYMATTR SpiceLine Rser=7.1m Lser=0 mfg="KEMET" pn="C1206C126K8PAC" type="X5R"
SYMBOL nmos 128 416 R0
SYMATTR InstName M1
SYMATTR Value IRFML8244
SYMBOL nmos 128 160 R0
SYMATTR InstName M2
SYMATTR Value IRFML8244
SYMBOL voltage -640 -48 R0
WINDOW 0 46 38 Left 2
WINDOW 3 46 66 Left 2
SYMATTR InstName V1
SYMATTR Value 5
SYMATTR SpiceLine Rser=1m
SYMBOL voltage -640 352 R0
SYMATTR InstName V2
SYMATTR Value PULSE(5 0 1u 0 0 .8u 6u)
SYMBOL voltage -640 496 R0
SYMATTR InstName V4
SYMATTR Value PULSE(5 0 4u 0 0 .8u 6u)
SYMBOL ind2 432 640 R0
SYMATTR InstName L5
SYMATTR Value 175µ
SYMATTR Type ind
SYMATTR SpiceLine Rser=.1
SYMBOL ind2 432 768 R0
SYMATTR InstName L6
SYMATTR Value 175µ
SYMATTR Type ind
SYMATTR SpiceLine Rser=.1
SYMBOL ind2 544 640 R0
SYMATTR InstName L7
SYMATTR Value 175µ
SYMATTR Type ind
SYMATTR SpiceLine Rser=.1
SYMBOL ind2 544 768 R0
SYMATTR InstName L8
SYMATTR Value 175µ
SYMATTR Type ind
SYMATTR SpiceLine Rser=.1
SYMBOL voltage -640 800 R0
SYMATTR InstName V5
SYMATTR Value PULSE(0 5 1u 0 0 9u 10u)
SYMBOL voltage -640 640 R0
SYMATTR InstName V6
SYMATTR Value PULSE(0 5 0 0 0 25n 50n)
SYMBOL SpecialFunctions/LTC2862-1 1472 544 R0
SYMATTR InstName U2
SYMBOL Digital/and -128 576 R0
WINDOW 3 -37 115 Left 2
SYMATTR Value Vhigh=5
SYMATTR InstName A1
SYMBOL Digital/and -128 848 R0
WINDOW 3 -31 115 Left 2
SYMATTR Value Vhigh=5
SYMATTR InstName A2
SYMBOL Digital/inv -320 848 R0
WINDOW 3 -1 97 Left 2
SYMATTR Value Vhigh=5
SYMATTR InstName A3
SYMBOL cap 768 720 R0
SYMATTR InstName C2
SYMATTR Value 1n
SYMATTR SpiceLine Rser=689.1m Lser=0 mfg="   ---" pn="   ---" type="   ---"
SYMBOL res 864 688 R0
SYMATTR InstName R1
SYMATTR Value 150
SYMBOL 74HCT/74hct14 0 192 R0
SYMATTR InstName U3
SYMBOL 74HCT/74hct14 48 848 R0
SYMATTR InstName U4
SYMBOL 74HCT/74hct14 0 448 R0
SYMATTR InstName U5
SYMBOL 74HCT/74hct14 48 576 R0
SYMATTR InstName U6
SYMBOL res 1728 464 R0
SYMATTR InstName R4
SYMATTR Value 100
SYMBOL cap 400 608 R90
WINDOW 0 0 32 VBottom 2
WINDOW 3 32 32 VTop 2
SYMATTR InstName C4
SYMATTR Value .1µ
SYMBOL cap -144 224 R90
WINDOW 0 0 32 VBottom 2
WINDOW 3 32 32 VTop 2
SYMATTR InstName C3
SYMATTR Value .1µ
SYMBOL cap -144 480 R90
WINDOW 0 0 32 VBottom 2
WINDOW 3 32 32 VTop 2
SYMATTR InstName C5
SYMATTR Value .1µ
SYMBOL res -80 0 R0
SYMATTR InstName R2
SYMATTR Value 4.7k
SYMBOL res -128 0 R0
WINDOW 0 -51 42 Left 2
WINDOW 3 -58 80 Left 2
SYMATTR InstName R3
SYMATTR Value 4.7k
SYMBOL schottky 656 624 R270
WINDOW 0 32 32 VTop 2
WINDOW 3 0 32 VBottom 2
SYMATTR InstName D3
SYMATTR Value BAT54
SYMBOL cap 1008 592 R90
WINDOW 0 0 32 VBottom 2
WINDOW 3 32 32 VTop 2
SYMATTR InstName C7
SYMATTR Value 1n
SYMBOL 74HCT/74hct14 1136 560 R0
SYMATTR InstName U1
SYMBOL res 1088 496 R270
WINDOW 0 32 56 VTop 2
WINDOW 3 0 56 VBottom 2
SYMATTR InstName R7
SYMATTR Value 1meg
TEXT 408 120 Left 2 !K0 L1 L2 L3 L4 1
TEXT -616 160 Left 2 !.tran 0 10m 1n
TEXT -616 192 Left 2 !.include 74hct.lib
TEXT 408 576 Left 2 !K1 L5 L6 L7 L8 1
TEXT 1088 672 Left 2 ;NC7WZ14P6X
